
#======================================================================
# CRYSTAL DATA
#----------------------------------------------------------------------
data_VESTA_phase_1

_chemical_name_common                  'Ba6 Ga4 Cu4 S4 O10'
_cell_length_a                         3.971735
_cell_length_b                         3.971735
_cell_length_c                         28.215052
_cell_angle_alpha                      90.000000
_cell_angle_beta                       90.000000
_cell_angle_gamma                      90.000000
_cell_volume                           445.083380
_space_group_name_H-M_alt              'P 1'
_space_group_IT_number                 1

loop_
_space_group_symop_operation_xyz
   'x, y, z'

loop_
   _atom_site_label
   _atom_site_occupancy
   _atom_site_fract_x
   _atom_site_fract_y
   _atom_site_fract_z
   _atom_site_adp_type
   _atom_site_B_iso_or_equiv
   _atom_site_type_symbol
   Ba1         1.0     0.500000     0.500000     0.000000    Biso  1.000000 Ba
   Ba2         1.0     0.000000     0.000000     0.355025    Biso  1.000000 Ba
   Ba3         1.0     0.500000     0.500000     0.144975    Biso  1.000000 Ba
   Ba4         1.0     0.000000     0.000000     0.500000    Biso  1.000000 Ba
   Ba5         1.0     0.500000     0.500000     0.855025    Biso  1.000000 Ba
   Ba6         1.0     0.000000     0.000000     0.644975    Biso  1.000000 Ba
   Ga1         1.0     0.000000     0.000000     0.065397    Biso  1.000000 Ga
   Ga2         1.0     0.500000     0.500000     0.434603    Biso  1.000000 Ga
   Ga3         1.0     0.500000     0.500000     0.565397    Biso  1.000000 Ga
   Ga4         1.0     0.000000     0.000000     0.934603    Biso  1.000000 Ga
   Cu1         1.0     0.000000     0.500000     0.250000    Biso  1.000000 Cu
   Cu2         1.0     0.500000     0.000000     0.250000    Biso  1.000000 Cu
   Cu3         1.0     0.500000     0.000000     0.750000    Biso  1.000000 Cu
   Cu4         1.0     0.000000     0.500000     0.750000    Biso  1.000000 Cu
   S1          1.0     0.000000     0.000000     0.199349    Biso  1.000000 S
   S2          1.0     0.500000     0.500000     0.300651    Biso  1.000000 S
   S3          1.0     0.500000     0.500000     0.699349    Biso  1.000000 S
   S4          1.0     0.000000     0.000000     0.800651    Biso  1.000000 S
   O1          1.0     0.500000     0.000000     0.076843    Biso  1.000000 O
   O2          1.0     0.000000     0.500000     0.423157    Biso  1.000000 O
   O3          1.0     0.000000     0.500000     0.076843    Biso  1.000000 O
   O4          1.0     0.500000     0.000000     0.423157    Biso  1.000000 O
   O5          1.0     0.000000     0.000000     0.000000    Biso  1.000000 O
   O6          1.0     0.000000     0.500000     0.576843    Biso  1.000000 O
   O7          1.0     0.500000     0.000000     0.923157    Biso  1.000000 O
   O8          1.0     0.500000     0.000000     0.576843    Biso  1.000000 O
   O9          1.0     0.000000     0.500000     0.923157    Biso  1.000000 O
   O10         1.0     0.500000     0.500000     0.500000    Biso  1.000000 O
