
#======================================================================
# CRYSTAL DATA
#----------------------------------------------------------------------
data_VESTA_phase_1

_chemical_name_common                  'Ca6 Ga4 Cu4 S4 O10'
_cell_length_a                         3.828555
_cell_length_b                         3.828555
_cell_length_c                         25.655857
_cell_angle_alpha                      90.000000
_cell_angle_beta                       90.000000
_cell_angle_gamma                      90.000000
_cell_volume                           376.059300
_space_group_name_H-M_alt              'P 1'
_space_group_IT_number                 1

loop_
_space_group_symop_operation_xyz
   'x, y, z'

loop_
   _atom_site_label
   _atom_site_occupancy
   _atom_site_fract_x
   _atom_site_fract_y
   _atom_site_fract_z
   _atom_site_adp_type
   _atom_site_B_iso_or_equiv
   _atom_site_type_symbol
   Ca1         1.0     0.500000     0.500000     0.000000    Biso  1.000000 Ca
   Ca2         1.0     0.000000     0.000000     0.359415    Biso  1.000000 Ca
   Ca3         1.0     0.500000     0.500000     0.140585    Biso  1.000000 Ca
   Ca4         1.0     0.000000     0.000000     0.500000    Biso  1.000000 Ca
   Ca5         1.0     0.500000     0.500000     0.859415    Biso  1.000000 Ca
   Ca6         1.0     0.000000     0.000000     0.640585    Biso  1.000000 Ca
   Ga1         1.0     0.000000     0.000000     0.072289    Biso  1.000000 Ga
   Ga2         1.0     0.500000     0.500000     0.427711    Biso  1.000000 Ga
   Ga3         1.0     0.500000     0.500000     0.572289    Biso  1.000000 Ga
   Ga4         1.0     0.000000     0.000000     0.927711    Biso  1.000000 Ga
   Cu1         1.0     0.000000     0.500000     0.250000    Biso  1.000000 Cu
   Cu2         1.0     0.500000     0.000000     0.250000    Biso  1.000000 Cu
   Cu3         1.0     0.500000     0.000000     0.750000    Biso  1.000000 Cu
   Cu4         1.0     0.000000     0.500000     0.750000    Biso  1.000000 Cu
   S1          1.0     0.000000     0.000000     0.191822    Biso  1.000000 S
   S2          1.0     0.500000     0.500000     0.308178    Biso  1.000000 S
   S3          1.0     0.500000     0.500000     0.691822    Biso  1.000000 S
   S4          1.0     0.000000     0.000000     0.808178    Biso  1.000000 S
   O1          1.0     0.500000     0.000000     0.083046    Biso  1.000000 O
   O2          1.0     0.000000     0.500000     0.416954    Biso  1.000000 O
   O3          1.0     0.000000     0.500000     0.083046    Biso  1.000000 O
   O4          1.0     0.500000     0.000000     0.416954    Biso  1.000000 O
   O5          1.0     0.000000     0.000000     0.000000    Biso  1.000000 O
   O6          1.0     0.000000     0.500000     0.583046    Biso  1.000000 O
   O7          1.0     0.500000     0.000000     0.916954    Biso  1.000000 O
   O8          1.0     0.500000     0.000000     0.583046    Biso  1.000000 O
   O9          1.0     0.000000     0.500000     0.916954    Biso  1.000000 O
   O10         1.0     0.500000     0.500000     0.500000    Biso  1.000000 O
