
#======================================================================
# CRYSTAL DATA
#----------------------------------------------------------------------
data_VESTA_phase_1

_chemical_name_common                  'Sr6 Ga4 Cu4 S4 O10'
_cell_length_a                         3.877992
_cell_length_b                         3.877992
_cell_length_c                         26.722534
_cell_angle_alpha                      90.000000
_cell_angle_beta                       90.000000
_cell_angle_gamma                      90.000000
_cell_volume                           401.875416
_space_group_name_H-M_alt              'P 1'
_space_group_IT_number                 1

loop_
_space_group_symop_operation_xyz
   'x, y, z'

loop_
   _atom_site_label
   _atom_site_occupancy
   _atom_site_fract_x
   _atom_site_fract_y
   _atom_site_fract_z
   _atom_site_adp_type
   _atom_site_B_iso_or_equiv
   _atom_site_type_symbol
   Sr1         1.0     0.500000     0.500000     0.000000    Biso  1.000000 Sr
   Sr2         1.0     0.000000     0.000000     0.358934    Biso  1.000000 Sr
   Sr3         1.0     0.500000     0.500000     0.141066    Biso  1.000000 Sr
   Sr4         1.0     0.000000     0.000000     0.500000    Biso  1.000000 Sr
   Sr5         1.0     0.500000     0.500000     0.858934    Biso  1.000000 Sr
   Sr6         1.0     0.000000     0.000000     0.641066    Biso  1.000000 Sr
   Ga1         1.0     0.000000     0.000000     0.070130    Biso  1.000000 Ga
   Ga2         1.0     0.500000     0.500000     0.429870    Biso  1.000000 Ga
   Ga3         1.0     0.500000     0.500000     0.570130    Biso  1.000000 Ga
   Ga4         1.0     0.000000     0.000000     0.929870    Biso  1.000000 Ga
   Cu1         1.0     0.000000     0.500000     0.250000    Biso  1.000000 Cu
   Cu2         1.0     0.500000     0.000000     0.250000    Biso  1.000000 Cu
   Cu3         1.0     0.500000     0.000000     0.750000    Biso  1.000000 Cu
   Cu4         1.0     0.000000     0.500000     0.750000    Biso  1.000000 Cu
   S1          1.0     0.000000     0.000000     0.196316    Biso  1.000000 S
   S2          1.0     0.500000     0.500000     0.303684    Biso  1.000000 S
   S3          1.0     0.500000     0.500000     0.696316    Biso  1.000000 S
   S4          1.0     0.000000     0.000000     0.803684    Biso  1.000000 S
   O1          1.0     0.500000     0.000000     0.081129    Biso  1.000000 O
   O2          1.0     0.000000     0.500000     0.418871    Biso  1.000000 O
   O3          1.0     0.000000     0.500000     0.081129    Biso  1.000000 O
   O4          1.0     0.500000     0.000000     0.418871    Biso  1.000000 O
   O5          1.0     0.000000     0.000000     0.000000    Biso  1.000000 O
   O6          1.0     0.000000     0.500000     0.581129    Biso  1.000000 O
   O7          1.0     0.500000     0.000000     0.918871    Biso  1.000000 O
   O8          1.0     0.500000     0.000000     0.581129    Biso  1.000000 O
   O9          1.0     0.000000     0.500000     0.918871    Biso  1.000000 O
   O10         1.0     0.500000     0.500000     0.500000    Biso  1.000000 O
