
#======================================================================
# CRYSTAL DATA
#----------------------------------------------------------------------
data_VESTA_phase_1

_chemical_name_common                  'Sr6 Sc4 Cu4 S4 O10'
_cell_length_a                         4.077498
_cell_length_b                         4.077498
_cell_length_c                         26.070829
_cell_angle_alpha                      90.000000
_cell_angle_beta                       90.000000
_cell_angle_gamma                      90.000000
_cell_volume                           433.453339
_space_group_name_H-M_alt              'P 1'
_space_group_IT_number                 1

loop_
_space_group_symop_operation_xyz
   'x, y, z'

loop_
   _atom_site_label
   _atom_site_occupancy
   _atom_site_fract_x
   _atom_site_fract_y
   _atom_site_fract_z
   _atom_site_adp_type
   _atom_site_B_iso_or_equiv
   _atom_site_type_symbol
   Sr1         1.0     0.500000     0.500000     0.000000    Biso  1.000000 Sr
   Sr2         1.0     0.000000     0.000000     0.352380    Biso  1.000000 Sr
   Sr3         1.0     0.500000     0.500000     0.147620    Biso  1.000000 Sr
   Sr4         1.0     0.000000     0.000000     0.500000    Biso  1.000000 Sr
   Sr5         1.0     0.500000     0.500000     0.852380    Biso  1.000000 Sr
   Sr6         1.0     0.000000     0.000000     0.647620    Biso  1.000000 Sr
   Sc1         1.0     0.000000     0.000000     0.071982    Biso  1.000000 Sc
   Sc2         1.0     0.500000     0.500000     0.428018    Biso  1.000000 Sc
   Sc3         1.0     0.500000     0.500000     0.571982    Biso  1.000000 Sc
   Sc4         1.0     0.000000     0.000000     0.928018    Biso  1.000000 Sc
   Cu1         1.0     0.000000     0.500000     0.250000    Biso  1.000000 Cu
   Cu2         1.0     0.500000     0.000000     0.250000    Biso  1.000000 Cu
   Cu3         1.0     0.500000     0.000000     0.750000    Biso  1.000000 Cu
   Cu4         1.0     0.000000     0.500000     0.750000    Biso  1.000000 Cu
   S1          1.0     0.000000     0.000000     0.194331    Biso  1.000000 S
   S2          1.0     0.500000     0.500000     0.305669    Biso  1.000000 S
   S3          1.0     0.500000     0.500000     0.694331    Biso  1.000000 S
   S4          1.0     0.000000     0.000000     0.805669    Biso  1.000000 S
   O1          1.0     0.500000     0.000000     0.081910    Biso  1.000000 O
   O2          1.0     0.000000     0.500000     0.418090    Biso  1.000000 O
   O3          1.0     0.000000     0.500000     0.081910    Biso  1.000000 O
   O4          1.0     0.500000     0.000000     0.418090    Biso  1.000000 O
   O5          1.0     0.000000     0.000000     0.000000    Biso  1.000000 O
   O6          1.0     0.000000     0.500000     0.581910    Biso  1.000000 O
   O7          1.0     0.500000     0.000000     0.918090    Biso  1.000000 O
   O8          1.0     0.500000     0.000000     0.581910    Biso  1.000000 O
   O9          1.0     0.000000     0.500000     0.918090    Biso  1.000000 O
   O10         1.0     0.500000     0.500000     0.500000    Biso  1.000000 O
