
#======================================================================
# CRYSTAL DATA
#----------------------------------------------------------------------
data_VESTA_phase_1

_chemical_name_common                  'Ba6 Sc4 Cu4 S4 O10'
_cell_length_a                         4.148146
_cell_length_b                         4.148146
_cell_length_c                         27.437811
_cell_angle_alpha                      90.000000
_cell_angle_beta                       90.000000
_cell_angle_gamma                      90.000000
_cell_volume                           472.125609
_space_group_name_H-M_alt              'P 1'
_space_group_IT_number                 1

loop_
_space_group_symop_operation_xyz
   'x, y, z'

loop_
   _atom_site_label
   _atom_site_occupancy
   _atom_site_fract_x
   _atom_site_fract_y
   _atom_site_fract_z
   _atom_site_adp_type
   _atom_site_B_iso_or_equiv
   _atom_site_type_symbol
   Ba1         1.0     0.500000     0.500000     0.000000    Biso  1.000000 Ba
   Ba2         1.0     0.000000     0.000000     0.354191    Biso  1.000000 Ba
   Ba3         1.0     0.500000     0.500000     0.145809    Biso  1.000000 Ba
   Ba4         1.0     0.000000     0.000000     0.500000    Biso  1.000000 Ba
   Ba5         1.0     0.500000     0.500000     0.854191    Biso  1.000000 Ba
   Ba6         1.0     0.000000     0.000000     0.645809    Biso  1.000000 Ba
   Sc1         1.0     0.000000     0.000000     0.072564    Biso  1.000000 Sc
   Sc2         1.0     0.500000     0.500000     0.427436    Biso  1.000000 Sc
   Sc3         1.0     0.500000     0.500000     0.572564    Biso  1.000000 Sc
   Sc4         1.0     0.000000     0.000000     0.927436    Biso  1.000000 Sc
   Cu1         1.0     0.000000     0.500000     0.250000    Biso  1.000000 Cu
   Cu2         1.0     0.500000     0.000000     0.250000    Biso  1.000000 Cu
   Cu3         1.0     0.500000     0.000000     0.750000    Biso  1.000000 Cu
   Cu4         1.0     0.000000     0.500000     0.750000    Biso  1.000000 Cu
   S1          1.0     0.000000     0.000000     0.202357    Biso  1.000000 S
   S2          1.0     0.500000     0.500000     0.297643    Biso  1.000000 S
   S3          1.0     0.500000     0.500000     0.702357    Biso  1.000000 S
   S4          1.0     0.000000     0.000000     0.797643    Biso  1.000000 S
   O1          1.0     0.500000     0.000000     0.083096    Biso  1.000000 O
   O2          1.0     0.000000     0.500000     0.416904    Biso  1.000000 O
   O3          1.0     0.000000     0.500000     0.083096    Biso  1.000000 O
   O4          1.0     0.500000     0.000000     0.416904    Biso  1.000000 O
   O5          1.0     0.000000     0.000000     0.000000    Biso  1.000000 O
   O6          1.0     0.000000     0.500000     0.583096    Biso  1.000000 O
   O7          1.0     0.500000     0.000000     0.916904    Biso  1.000000 O
   O8          1.0     0.500000     0.000000     0.583096    Biso  1.000000 O
   O9          1.0     0.000000     0.500000     0.916904    Biso  1.000000 O
   O10         1.0     0.500000     0.500000     0.500000    Biso  1.000000 O
