
#======================================================================
# CRYSTAL DATA
#----------------------------------------------------------------------
data_VESTA_phase_1

_chemical_name_common                  'Ba6 Al4 Cu4 S4 O10'
_cell_length_a                         3.888609
_cell_length_b                         3.888609
_cell_length_c                         28.260645
_cell_angle_alpha                      90.000000
_cell_angle_beta                       90.000000
_cell_angle_gamma                      90.000000
_cell_volume                           427.337109
_space_group_name_H-M_alt              'P 1'
_space_group_IT_number                 1

loop_
_space_group_symop_operation_xyz
   'x, y, z'

loop_
   _atom_site_label
   _atom_site_occupancy
   _atom_site_fract_x
   _atom_site_fract_y
   _atom_site_fract_z
   _atom_site_adp_type
   _atom_site_B_iso_or_equiv
   _atom_site_type_symbol
   Ba1         1.0     0.500000     0.500000     0.000000    Biso  1.000000 Ba
   Ba2         1.0     0.000000     0.000000     0.357895    Biso  1.000000 Ba
   Ba3         1.0     0.500000     0.500000     0.142105    Biso  1.000000 Ba
   Ba4         1.0     0.000000     0.000000     0.500000    Biso  1.000000 Ba
   Ba5         1.0     0.500000     0.500000     0.857895    Biso  1.000000 Ba
   Ba6         1.0     0.000000     0.000000     0.642105    Biso  1.000000 Ba
   Al1         1.0     0.000000     0.000000     0.062929    Biso  1.000000 Al
   Al2         1.0     0.500000     0.500000     0.437071    Biso  1.000000 Al
   Al3         1.0     0.500000     0.500000     0.562929    Biso  1.000000 Al
   Al4         1.0     0.000000     0.000000     0.937071    Biso  1.000000 Al
   Cu1         1.0     0.000000     0.500000     0.250000    Biso  1.000000 Cu
   Cu2         1.0     0.500000     0.000000     0.250000    Biso  1.000000 Cu
   Cu3         1.0     0.500000     0.000000     0.750000    Biso  1.000000 Cu
   Cu4         1.0     0.000000     0.500000     0.750000    Biso  1.000000 Cu
   S1          1.0     0.000000     0.000000     0.199163    Biso  1.000000 S
   S2          1.0     0.500000     0.500000     0.300837    Biso  1.000000 S
   S3          1.0     0.500000     0.500000     0.699163    Biso  1.000000 S
   S4          1.0     0.000000     0.000000     0.800837    Biso  1.000000 S
   O1          1.0     0.500000     0.000000     0.074641    Biso  1.000000 O
   O2          1.0     0.000000     0.500000     0.425359    Biso  1.000000 O
   O3          1.0     0.000000     0.500000     0.074641    Biso  1.000000 O
   O4          1.0     0.500000     0.000000     0.425359    Biso  1.000000 O
   O5          1.0     0.000000     0.000000     0.000000    Biso  1.000000 O
   O6          1.0     0.000000     0.500000     0.574641    Biso  1.000000 O
   O7          1.0     0.500000     0.000000     0.925359    Biso  1.000000 O
   O8          1.0     0.500000     0.000000     0.574641    Biso  1.000000 O
   O9          1.0     0.000000     0.500000     0.925359    Biso  1.000000 O
   O10         1.0     0.500000     0.500000     0.500000    Biso  1.000000 O
