
#======================================================================
# CRYSTAL DATA
#----------------------------------------------------------------------
data_VESTA_phase_1

_chemical_name_common                  'Ca6 Al4 Cu4 S4 O10'
_cell_length_a                         3.713566
_cell_length_b                         3.713566
_cell_length_c                         25.657398
_cell_angle_alpha                      90.000000
_cell_angle_beta                       90.000000
_cell_angle_gamma                      90.000000
_cell_volume                           353.830221
_space_group_name_H-M_alt              'P 1'
_space_group_IT_number                 1

loop_
_space_group_symop_operation_xyz
   'x, y, z'

loop_
   _atom_site_label
   _atom_site_occupancy
   _atom_site_fract_x
   _atom_site_fract_y
   _atom_site_fract_z
   _atom_site_adp_type
   _atom_site_B_iso_or_equiv
   _atom_site_type_symbol
   Ca1         1.0     0.500000     0.500000     0.000000    Biso  1.000000 Ca
   Ca2         1.0     0.000000     0.000000     0.362169    Biso  1.000000 Ca
   Ca3         1.0     0.500000     0.500000     0.137831    Biso  1.000000 Ca
   Ca4         1.0     0.000000     0.000000     0.500000    Biso  1.000000 Ca
   Ca5         1.0     0.500000     0.500000     0.862169    Biso  1.000000 Ca
   Ca6         1.0     0.000000     0.000000     0.637831    Biso  1.000000 Ca
   Al1         1.0     0.000000     0.000000     0.068489    Biso  1.000000 Al
   Al2         1.0     0.500000     0.500000     0.431511    Biso  1.000000 Al
   Al3         1.0     0.500000     0.500000     0.568489    Biso  1.000000 Al
   Al4         1.0     0.000000     0.000000     0.931511    Biso  1.000000 Al
   Cu1         1.0     0.000000     0.500000     0.250000    Biso  1.000000 Cu
   Cu2         1.0     0.500000     0.000000     0.250000    Biso  1.000000 Cu
   Cu3         1.0     0.500000     0.000000     0.750000    Biso  1.000000 Cu
   Cu4         1.0     0.000000     0.500000     0.750000    Biso  1.000000 Cu
   S1          1.0     0.000000     0.000000     0.190000    Biso  1.000000 S
   S2          1.0     0.500000     0.500000     0.310000    Biso  1.000000 S
   S3          1.0     0.500000     0.500000     0.690000    Biso  1.000000 S
   S4          1.0     0.000000     0.000000     0.810000    Biso  1.000000 S
   O1          1.0     0.500000     0.000000     0.079198    Biso  1.000000 O
   O2          1.0     0.000000     0.500000     0.420802    Biso  1.000000 O
   O3          1.0     0.000000     0.500000     0.079198    Biso  1.000000 O
   O4          1.0     0.500000     0.000000     0.420802    Biso  1.000000 O
   O5          1.0     0.000000     0.000000     0.000000    Biso  1.000000 O
   O6          1.0     0.000000     0.500000     0.579198    Biso  1.000000 O
   O7          1.0     0.500000     0.000000     0.920802    Biso  1.000000 O
   O8          1.0     0.500000     0.000000     0.579198    Biso  1.000000 O
   O9          1.0     0.000000     0.500000     0.920802    Biso  1.000000 O
   O10         1.0     0.500000     0.500000     0.500000    Biso  1.000000 O
