
#======================================================================
# CRYSTAL DATA
#----------------------------------------------------------------------
data_VESTA_phase_1

_chemical_name_common                  'Ba6 In4 Cu4 S4 O10'
_cell_length_a                         4.194584
_cell_length_b                         4.194584
_cell_length_c                         27.730661
_cell_angle_alpha                      90.000000
_cell_angle_beta                       90.000000
_cell_angle_gamma                      90.000000
_cell_volume                           487.908066
_space_group_name_H-M_alt              'P 1'
_space_group_IT_number                 1

loop_
_space_group_symop_operation_xyz
   'x, y, z'

loop_
   _atom_site_label
   _atom_site_occupancy
   _atom_site_fract_x
   _atom_site_fract_y
   _atom_site_fract_z
   _atom_site_adp_type
   _atom_site_B_iso_or_equiv
   _atom_site_type_symbol
   Ba1         1.0     0.500000     0.500000     0.000000    Biso  1.000000 Ba
   Ba2         1.0     0.000000     0.000000     0.352081    Biso  1.000000 Ba
   Ba3         1.0     0.500000     0.500000     0.147919    Biso  1.000000 Ba
   Ba4         1.0     0.000000     0.000000     0.500000    Biso  1.000000 Ba
   Ba5         1.0     0.500000     0.500000     0.852081    Biso  1.000000 Ba
   Ba6         1.0     0.000000     0.000000     0.647919    Biso  1.000000 Ba
   In1         1.0     0.000000     0.000000     0.074964    Biso  1.000000 In
   In2         1.0     0.500000     0.500000     0.425036    Biso  1.000000 In
   In3         1.0     0.500000     0.500000     0.574964    Biso  1.000000 In
   In4         1.0     0.000000     0.000000     0.925036    Biso  1.000000 In
   Cu1         1.0     0.000000     0.500000     0.250000    Biso  1.000000 Cu
   Cu2         1.0     0.500000     0.000000     0.250000    Biso  1.000000 Cu
   Cu3         1.0     0.500000     0.000000     0.750000    Biso  1.000000 Cu
   Cu4         1.0     0.000000     0.500000     0.750000    Biso  1.000000 Cu
   S1          1.0     0.000000     0.000000     0.203737    Biso  1.000000 S
   S2          1.0     0.500000     0.500000     0.296263    Biso  1.000000 S
   S3          1.0     0.500000     0.500000     0.703737    Biso  1.000000 S
   S4          1.0     0.000000     0.000000     0.796263    Biso  1.000000 S
   O1          1.0     0.500000     0.000000     0.085827    Biso  1.000000 O
   O2          1.0     0.000000     0.500000     0.414173    Biso  1.000000 O
   O3          1.0     0.000000     0.500000     0.085827    Biso  1.000000 O
   O4          1.0     0.500000     0.000000     0.414173    Biso  1.000000 O
   O5          1.0     0.000000     0.000000     0.000000    Biso  1.000000 O
   O6          1.0     0.000000     0.500000     0.585827    Biso  1.000000 O
   O7          1.0     0.500000     0.000000     0.914173    Biso  1.000000 O
   O8          1.0     0.500000     0.000000     0.585827    Biso  1.000000 O
   O9          1.0     0.000000     0.500000     0.914173    Biso  1.000000 O
   O10         1.0     0.500000     0.500000     0.500000    Biso  1.000000 O
