
#======================================================================
# CRYSTAL DATA
#----------------------------------------------------------------------
data_VESTA_phase_1

_chemical_name_common                  'Ca6 Sc4 Cu4 S4 O10'
_cell_length_a                         4.017942
_cell_length_b                         4.017942
_cell_length_c                         25.254250
_cell_angle_alpha                      90.000000
_cell_angle_beta                       90.000000
_cell_angle_gamma                      90.000000
_cell_volume                           407.701007
_space_group_name_H-M_alt              'P 1'
_space_group_IT_number                 1

loop_
_space_group_symop_operation_xyz
   'x, y, z'

loop_
   _atom_site_label
   _atom_site_occupancy
   _atom_site_fract_x
   _atom_site_fract_y
   _atom_site_fract_z
   _atom_site_adp_type
   _atom_site_B_iso_or_equiv
   _atom_site_type_symbol
   Ca1         1.0     0.500000     0.500000     0.000000    Biso  1.000000 Ca
   Ca2         1.0     0.000000     0.000000     0.357789    Biso  1.000000 Ca
   Ca3         1.0     0.500000     0.500000     0.142211    Biso  1.000000 Ca
   Ca4         1.0     0.000000     0.000000     0.500000    Biso  1.000000 Ca
   Ca5         1.0     0.500000     0.500000     0.857789    Biso  1.000000 Ca
   Ca6         1.0     0.000000     0.000000     0.642211    Biso  1.000000 Ca
   Sc1         1.0     0.000000     0.000000     0.078144    Biso  1.000000 Sc
   Sc2         1.0     0.500000     0.500000     0.421856    Biso  1.000000 Sc
   Sc3         1.0     0.500000     0.500000     0.578144    Biso  1.000000 Sc
   Sc4         1.0     0.000000     0.000000     0.921856    Biso  1.000000 Sc
   Cu1         1.0     0.000000     0.500000     0.250000    Biso  1.000000 Cu
   Cu2         1.0     0.500000     0.000000     0.250000    Biso  1.000000 Cu
   Cu3         1.0     0.500000     0.000000     0.750000    Biso  1.000000 Cu
   Cu4         1.0     0.000000     0.500000     0.750000    Biso  1.000000 Cu
   S1          1.0     0.000000     0.000000     0.195423    Biso  1.000000 S
   S2          1.0     0.500000     0.500000     0.304577    Biso  1.000000 S
   S3          1.0     0.500000     0.500000     0.695423    Biso  1.000000 S
   S4          1.0     0.000000     0.000000     0.804577    Biso  1.000000 S
   O1          1.0     0.500000     0.000000     0.088285    Biso  1.000000 O
   O2          1.0     0.000000     0.500000     0.411715    Biso  1.000000 O
   O3          1.0     0.000000     0.500000     0.088285    Biso  1.000000 O
   O4          1.0     0.500000     0.000000     0.411715    Biso  1.000000 O
   O5          1.0     0.000000     0.000000     0.000000    Biso  1.000000 O
   O6          1.0     0.000000     0.500000     0.588285    Biso  1.000000 O
   O7          1.0     0.500000     0.000000     0.911715    Biso  1.000000 O
   O8          1.0     0.500000     0.000000     0.588285    Biso  1.000000 O
   O9          1.0     0.000000     0.500000     0.911715    Biso  1.000000 O
   O10         1.0     0.500000     0.500000     0.500000    Biso  1.000000 O
